LTspice 26.0.1 for Windows
Circuit: C:\users\arson\Documents\LTspice\Draft1.net
Start Time: Sun May  3 18:26:17 2026
Options:trtol=5 abstol=1n vntol=1m
solver = Normal
Maximum thread count: 12
tnom = 27
temp = 27
method = trap
abstol = 1e-09
trtol = 5
volttol = 0.001
Direct Newton iteration succeeded in finding operating point.
Total elapsed time: 0.550 seconds.

Files loaded:
C:\users\arson\Documents\LTspice\Draft1.net
C:\users\arson\AppData\Local\LTspice\lib\sub\LTC6269.sub
C:\users\arson\AppData\Local\LTspice\lib\sub\LTC6268.sub

