LTspice 26.0.1 for Windows
Circuit: C:\users\arson\Documents\LTspice\Draft2.net
Start Time: Thu May  7 18:53:52 2026
solver = Normal
Maximum thread count: 12
tnom = 27
temp = 27
method = trap
Direct Newton iteration failed to find operating point.
Starting Gmin stepping
Gmin stepping failed to find operating point. Use".option gminsteps=0" to skip all Gmin stepping.
Starting source stepping with srcstepmethod=0
Source stepping succeeded in finding the operating point.


Simulation stopped by user.
Total elapsed time: 34.184 seconds.

Files loaded:
C:\users\arson\Documents\LTspice\Draft2.net
C:\users\arson\Documents\LTspice\Custom_SPICE_Models\OPA277\OPAx277.LIB
C:\users\arson\AppData\Local\LTspice\lib\sub\LTC6269.sub
C:\users\arson\AppData\Local\LTspice\lib\sub\LTC6268.sub

